Version 4
SHEET 1 880 680
WIRE 112 -16 32 -16
WIRE 112 32 112 -16
WIRE 48 80 32 80
WIRE 112 144 112 112
WIRE 128 144 112 144
WIRE 48 176 48 80
WIRE 128 176 48 176
WIRE 128 208 48 208
WIRE 48 416 48 208
WIRE -16 576 -16 544
FLAG -320 112 0
FLAG -240 112 0
FLAG -320 32 V-
IOPIN -320 32 Out
FLAG -240 32 V+
IOPIN -240 32 Out
FLAG 112 -16 V+
IOPIN 112 -16 In
FLAG 32 16 V-
IOPIN 32 16 In
FLAG -320 320 0
FLAG -320 240 Vin
IOPIN -320 240 Out
FLAG 32 48 Vin
IOPIN 32 48 In
FLAG -16 576 0
FLAG -80 416 Qa
IOPIN -80 416 Out
FLAG -48 416 Qb
IOPIN -48 416 Out
FLAG -16 416 Qc
IOPIN -16 416 Out
FLAG 16 416 Qd
IOPIN 16 416 Out
SYMBOL LDO -16 32 R0
SYMATTR InstName LDO
SYMBOL VCO_555 176 176 M0
SYMATTR InstName VCO
SYMBOL Frequency_counter -16 480 R270
SYMATTR InstName Freq_Counter
SYMBOL voltage -320 16 R0
WINDOW 123 0 0 Left 0
WINDOW 39 24 124 Left 2
SYMATTR SpiceLine Rser=10
SYMATTR InstName V-
SYMATTR Value 0
SYMBOL voltage -240 16 R0
WINDOW 123 0 0 Left 0
WINDOW 39 24 124 Left 2
SYMATTR SpiceLine Rser=10
SYMATTR InstName V+
SYMATTR Value 3.3
SYMBOL voltage -320 224 R0
WINDOW 123 0 0 Left 0
WINDOW 39 24 124 Left 2
WINDOW 3 24 44 Left 2
SYMATTR SpiceLine Rser=10
SYMATTR InstName V1
SYMATTR Value 3.3
SYMBOL res 96 16 R0
SYMATTR InstName R3
SYMATTR Value 10
TEXT -120 232 Left 2 !.tran 0 20m 0
